   21
dipropylether
 C      1.321632    -1.041217    -0.217531
 O     -0.027170    -0.869113    -0.598046
 C     -0.939643    -0.830750     0.493792
 C      1.894916     0.116227     0.599667
 C     -2.224582    -0.161267     0.016106
 C      2.056831     1.378132    -0.214363
 C     -2.096073     1.344048    -0.051430
 H      1.439109    -1.997382     0.328094
 H      1.814839    -1.140779    -1.199910
 H     -1.127581    -1.870687     0.821345
 H     -0.495961    -0.282337     1.355298
 H      1.227196     0.306696     1.470281
 H      2.870395    -0.192620     1.021204
 H     -2.521106    -0.560729    -0.974158
 H     -3.044232    -0.438213     0.707914
 H      2.489757     2.187205     0.387815
 H      1.091486     1.734301    -0.600934
 H      2.717500     1.221404    -1.077424
 H     -3.018492     1.805017    -0.426924
 H     -1.889104     1.778228     0.936134
 H     -1.278415     1.651126    -0.718071
